#
# AIR CHEMISTRY V1
# INPUT DATA FILE
# ZDPLASKIN
#
#

ELEMENTS
e O N
END

SPECIES
e N2 O2 N2^+ O2^+ O2^- O^- N2O O
O4^+ N4^+ O3^- 
O3
END

BOLSIG #This is an optional section
N2
O2
END

REACTIONS
#Ionization
e + N2 => e + e + N2^+ ! Bolsig N2->N2^+
#What about the other N2^+?
e + N2 => e + e + N2^+ ! Bolsig N2 -> N2^+(B2SIGMA)
e + O2 => e + e + O2^+ ! Bolsig O2->O2^+
#Attachment
e + O2 + O2 => O2^- + O2! Bolsig O2->O2^-
e + O2 => O^-  + O! Bolsig O2->O^-
#Detachment
$double precision :: detachment_rate1
$detachment_rate1 = 1.24d-11*exp(-(179.0d0/(8.8d0 + EN))**2)
O2^- + @M => e + O2 + @M ! detachment_rate1
@M=N2 O2
$double precision :: detachment_rate2
$detachment_rate2 = 1.16d-12*exp(-(48.9d0/(11.0d0 + EN))**2)
O^- + N2 => e + N2O! detachment_rate2
#Negative ion conversion
$double precision :: nion_conv1
$nion_conv1 = 6.9d-11*exp(-(198.0d0/(5.6d0 + EN))**2)
O^- + O2 => O + O2^- !nion_conv1
$double precision :: nion_conv2
$nion_conv2 = 1.3d-30*exp(-(EN/(65.0d0))**2)
O^- + O2 + @M=> @M + O3^- !nion_conv2
@M=N2 O2
#Recombination
$double precision :: recomb_rate
$recomb_rate = 1.4d-6*(300.d0/Te)**(5.d-1)
e + O4^+ => O2 + O2 !recomb_rate
#Positive ion conversion
$double precision :: pos_ion1
$pos_ion1 = 5.0d-29*(300.0d0/Tgas)**2
N2^+ + N2 + @M => N4^+ + @M !pos_ion1
@M=N2 O2
N4^+ + O2 => N2 + N2 + O2^+ !2.5d-10
$double precision :: pos_ion2
$pos_ion2 = 2.4d-30*(300.0d0/Tgas)**3
O2^+ + O2 + @M => O4^+ + @M !pos_ion2
@M=N2 O2
#Recombinations
N2^+ + O^- => N2 + O !1.0d-7
N2^+ + O3^- => N2 + O3 !1.0d-7
N2^+ + O2^- => N2 + O2 !1.0d-7
O2^+ + O^- => O2 + O !1.0d-7
O2^+ + O3^- => O2 + O3 !1.0d-7
O2^+ + O2^- => O2 + O2 !1.0d-7
O4^+ + O^- => O2 + O2 + O!1.0d-7
O4^+ + O2^- => O2 + O2 + O2!1.0d-7
O4^+ + O3^- => O2 + O2 + O3!1.0d-7
N4^+ + O^- => N2 + N2 + O !1.0d-7
N4^+ + O3^- => N2 + N2 + O3 !1.0d-7
N4^+ + O2^- => N2 + N2 + O2 !1.0d-7

END

